Version 4
SHEET 1 880 680
WIRE 0 16 -304 16
WIRE 224 16 0 16
WIRE 384 16 224 16
WIRE 528 16 448 16
WIRE -304 32 -304 16
WIRE 0 48 0 16
WIRE 224 144 224 16
WIRE 336 144 224 144
WIRE 224 176 224 144
WIRE 336 176 336 144
WIRE 144 208 -112 208
WIRE 144 224 144 208
WIRE 320 224 240 224
WIRE 528 224 528 16
WIRE 528 224 416 224
WIRE 736 224 528 224
WIRE -112 320 -112 208
FLAG -304 112 0
FLAG -112 400 0
FLAG 0 128 0
FLAG 736 224 out
SYMBOL pmos 144 176 M90
SYMATTR InstName M1
SYMBOL schottky 384 32 R270
WINDOW 0 32 32 VTop 2
WINDOW 3 0 32 VBottom 2
SYMATTR InstName D1
SYMBOL voltage -112 304 R0
WINDOW 123 0 0 Left 0
WINDOW 39 0 0 Left 0
SYMATTR InstName V1
SYMATTR Value 3.5
SYMBOL voltage -304 16 R0
WINDOW 123 0 0 Left 0
WINDOW 39 0 0 Left 0
SYMATTR InstName V2
SYMATTR Value 5
SYMBOL res -16 32 R0
SYMATTR InstName R1
SYMATTR Value 10k
SYMBOL pmos 416 176 R90
SYMATTR InstName M2
TEXT -336 424 Left 2 !.tran 5
