Version 4
SHEET 1 1704 680
WIRE 1584 -32 1360 -32
WIRE 944 -16 752 -16
WIRE 528 48 528 0
WIRE 80 96 -16 96
WIRE 208 96 160 96
WIRE 1360 96 1360 -32
WIRE 1424 96 1360 96
WIRE 752 112 752 -16
WIRE 784 112 752 112
WIRE 1584 112 1584 -32
WIRE 1584 112 1488 112
WIRE 1648 112 1584 112
WIRE 944 128 944 -16
WIRE 944 128 848 128
WIRE 992 128 944 128
WIRE 1024 128 992 128
WIRE 1152 128 1104 128
WIRE 1184 128 1152 128
WIRE 1344 128 1264 128
WIRE 1424 128 1344 128
WIRE 528 144 528 128
WIRE 784 144 528 144
WIRE -16 176 -16 96
WIRE 528 176 528 144
WIRE 1152 192 1152 128
WIRE 528 288 528 256
WIRE 1344 288 1344 128
WIRE 1424 288 1344 288
WIRE 1584 288 1584 112
WIRE 1584 288 1488 288
WIRE -16 304 -16 256
WIRE 1152 304 1152 256
FLAG -16 304 0
FLAG -16 96 voltage
FLAG 208 96 vin
FLAG 816 96 voltage
FLAG 1456 80 voltage
FLAG 1456 144 0
FLAG 816 160 0
FLAG 528 288 0
FLAG 528 0 vin
FLAG 1152 304 0
FLAG 1648 112 out
FLAG 992 128 nonfil
SYMBOL voltage -16 160 R0
WINDOW 123 0 0 Left 0
WINDOW 39 0 0 Left 0
SYMATTR InstName V1
SYMATTR Value 3.3
SYMBOL voltage 176 96 R90
WINDOW 0 -32 56 VBottom 2
WINDOW 3 32 56 VTop 2
WINDOW 123 0 0 Left 0
WINDOW 39 0 0 Left 0
SYMATTR InstName V2
SYMATTR Value SINE(0 0.1 1k 1 0 0 1k)
SYMBOL res 512 32 R0
SYMATTR InstName R1
SYMATTR Value 2900
SYMBOL res 512 160 R0
SYMATTR InstName R2
SYMATTR Value 3600
SYMBOL OpAmps\\UniversalOpAmp2 816 128 R0
SYMATTR InstName U1
SYMBOL OpAmps\\UniversalOpAmp2 1456 112 R0
SYMATTR InstName U2
SYMBOL res 1120 112 R90
WINDOW 0 0 56 VBottom 2
WINDOW 3 32 56 VTop 2
SYMATTR InstName R3
SYMATTR Value 1Meg
SYMBOL res 1280 112 R90
WINDOW 0 0 56 VBottom 2
WINDOW 3 32 56 VTop 2
SYMATTR InstName R4
SYMATTR Value 1Meg
SYMBOL cap 1136 192 R0
SYMATTR InstName C1
SYMATTR Value 100n
SYMBOL cap 1488 272 R90
WINDOW 0 0 32 VBottom 2
WINDOW 3 32 32 VTop 2
SYMATTR InstName C2
SYMATTR Value 100n
TEXT -74 338 Left 2 !.tran 3
