Version 4
SHEET 1 1032 680
WIRE 192 -16 -48 -16
WIRE 192 48 192 -16
WIRE -272 112 -352 112
WIRE -48 112 -48 -16
WIRE -48 112 -272 112
WIRE 48 112 -48 112
WIRE 432 112 336 112
WIRE 720 112 512 112
WIRE 848 112 720 112
WIRE 976 112 848 112
WIRE -272 128 -272 112
WIRE 560 144 528 144
WIRE 656 144 624 144
WIRE -640 160 -640 32
WIRE 848 176 848 112
WIRE 480 192 336 192
WIRE 528 192 528 144
WIRE 528 192 480 192
WIRE 544 192 528 192
WIRE 656 192 656 144
WIRE 656 192 624 192
WIRE 720 192 720 112
WIRE 720 192 656 192
WIRE 480 208 480 192
WIRE -272 240 -272 192
WIRE -48 272 -48 112
WIRE 48 272 -48 272
WIRE 432 272 336 272
WIRE 560 288 480 288
WIRE -640 320 -640 240
WIRE 432 336 432 272
WIRE 192 400 192 336
WIRE 432 416 432 400
WIRE 560 416 560 288
WIRE 560 416 432 416
WIRE 848 416 848 240
WIRE 848 416 560 416
WIRE 432 448 432 416
FLAG 192 400 0
FLAG 432 448 0
FLAG -272 240 0
FLAG -352 112 Vin
FLAG -640 32 Vin
FLAG 976 112 out
FLAG -640 320 0
SYMBOL PowerProducts\\LTC3404 192 192 R0
SYMATTR InstName U1
SYMBOL cap -288 128 R0
SYMATTR InstName C1
SYMATTR Value 10µ
SYMBOL cap 416 336 R0
SYMATTR InstName C2
SYMATTR Value 47p
SYMBOL cap 624 128 R90
WINDOW 0 0 32 VBottom 2
WINDOW 3 32 32 VTop 2
SYMATTR InstName C3
SYMATTR Value 20p
SYMBOL cap 864 240 R180
WINDOW 0 24 56 Left 2
WINDOW 3 24 8 Left 2
SYMATTR InstName C4
SYMATTR Value 22µ
SYMBOL ind 416 128 R270
WINDOW 0 32 56 VTop 2
WINDOW 3 5 56 VBottom 2
SYMATTR InstName L1
SYMATTR Value 4.7µ
SYMBOL res 496 304 R180
WINDOW 0 36 76 Left 2
WINDOW 3 36 40 Left 2
SYMATTR InstName R1
SYMATTR Value 280k
SYMBOL res 640 176 R90
WINDOW 0 0 56 VBottom 2
WINDOW 3 32 56 VTop 2
SYMATTR InstName R2
SYMATTR Value 887k
SYMBOL voltage -640 144 R0
WINDOW 123 0 0 Left 0
WINDOW 39 0 0 Left 0
SYMATTR InstName V1
SYMATTR Value 5
TEXT -674 472 Left 2 !.tran 10
